grids/grid_uri/cigre/cigre_eu_lv_com/validation/Comercial_Subnetwork_Power_elem_kVA.txt

CIRCUIT ELEMENT POWER FLOW

(Power Flow into element from indicated Bus)

Power Delivery Elements

  Bus     Phase     kW     +j   kvar         kVA         PF

ELEMENT = "Vsource.SOURCE"
SOURCEBUS     1       -76.6 +j    -39.5       86.2       0.8887
SOURCEBUS     2       -76.4 +j    -39.0       85.8       0.8906
SOURCEBUS     3       -76.9 +j    -39.1       86.3       0.8914
   TERMINAL TOTAL .  -229.9 +j   -117.6      258.2       0.8903
SOURCEBUS     0         0.0 +j      0.0        0.0       1.0000
SOURCEBUS     0         0.0 +j      0.0        0.0       1.0000
SOURCEBUS     0         0.0 +j      0.0        0.0       1.0000
   TERMINAL TOTAL .     0.0 +j      0.0        0.0       1.0000

ELEMENT = "Transformer.T1"
SOURCEBUS     1        76.6 +j     39.5       86.2       0.8887
SOURCEBUS     2        76.4 +j     39.0       85.8       0.8906
SOURCEBUS     3        76.9 +j     39.1       86.3       0.8914
SOURCEBUS     0         0.0 +j      0.0        0.0       1.0000
   TERMINAL TOTAL .   229.9 +j    117.6      258.2       0.8903
C_01          1       -75.5 +j    -36.5       83.9       0.9004
C_01          2       -74.9 +j    -36.2       83.2       0.9002
C_01          3       -75.1 +j    -36.0       83.3       0.9017
C_01          4         0.0 +j      0.0        0.0       0.1746
   TERMINAL TOTAL .  -225.4 +j   -108.7      250.3       0.9007

ELEMENT = "Line.LINE_01"
C_01          1        39.5 +j     19.0       43.8       0.9008
C_01          2        38.9 +j     18.8       43.2       0.9004
C_01          3        39.1 +j     18.6       43.3       0.9031
C_01          4        -0.0 +j     -0.0        0.0       0.1898
   TERMINAL TOTAL .   117.4 +j     56.4      130.3       0.9014
C_02          1       -38.9 +j    -18.7       43.2       0.9012
C_02          2       -38.3 +j    -18.5       42.5       0.9008
C_02          3       -38.6 +j    -18.3       42.7       0.9039
C_02          4         0.0 +j      0.0        0.0       0.5558
   TERMINAL TOTAL .  -115.8 +j    -55.4      128.4       0.9020

ELEMENT = "Line.LINE_02"
C_02          1        38.9 +j     18.7       43.2       0.9012
C_02          2        38.3 +j     18.5       42.5       0.9008
C_02          3        38.6 +j     18.3       42.7       0.9039
C_02          4        -0.0 +j     -0.0        0.0       0.5558
   TERMINAL TOTAL .   115.8 +j     55.4      128.4       0.9020
C_03          1       -38.3 +j    -18.4       42.5       0.9016
C_03          2       -37.8 +j    -18.2       41.9       0.9012
C_03          3       -38.1 +j    -17.9       42.1       0.9047
C_03          4         0.0 +j      0.0        0.0       0.5758
   TERMINAL TOTAL .  -114.1 +j    -54.5      126.4       0.9025

ELEMENT = "Line.LINE_03"
C_03          1        17.9 +j      8.6       19.8       0.9002
C_03          2        17.6 +j      8.5       19.6       0.8998
C_03          3        17.7 +j      8.4       19.6       0.9036
C_03          4        -0.0 +j     -0.0        0.0       0.5673
   TERMINAL TOTAL .    53.2 +j     25.6       59.0       0.9012
C_04          1       -17.7 +j     -8.6       19.7       0.9004
C_04          2       -17.5 +j     -8.5       19.4       0.8999
C_04          3       -17.6 +j     -8.3       19.5       0.9040
C_04          4         0.0 +j      0.0        0.0       0.5723
   TERMINAL TOTAL .   -52.8 +j    -25.4       58.6       0.9014

ELEMENT = "Line.LINE_04"
C_04          1        17.7 +j      8.6       19.7       0.9004
C_04          2        17.5 +j      8.5       19.4       0.8999
C_04          3        17.6 +j      8.3       19.5       0.9040
C_04          4        -0.0 +j     -0.0        0.0       0.5723
   TERMINAL TOTAL .    52.8 +j     25.4       58.6       0.9014
C_05          1       -17.6 +j     -8.5       19.5       0.9006
C_05          2       -17.4 +j     -8.4       19.3       0.9001
C_05          3       -17.5 +j     -8.3       19.4       0.9044
C_05          4         0.0 +j      0.0        0.0       0.5757
   TERMINAL TOTAL .   -52.5 +j    -25.2       58.2       0.9017

ELEMENT = "Line.LINE_05"
C_05          1         7.4 +j      3.6        8.2       0.8992
C_05          2         7.3 +j      3.5        8.1       0.8989
C_05          3         7.3 +j      3.5        8.1       0.9031
C_05          4        -0.0 +j     -0.0        0.0       0.5635
   TERMINAL TOTAL .    21.9 +j     10.6       24.4       0.9004
C_06          1        -7.3 +j     -3.6        8.2       0.8993
C_06          2        -7.2 +j     -3.5        8.1       0.8989
C_06          3        -7.3 +j     -3.5        8.1       0.9033
C_06          4         0.0 +j      0.0        0.0       0.5648
   TERMINAL TOTAL .   -21.9 +j    -10.6       24.3       0.9005

ELEMENT = "Line.LINE_06"
C_06          1         7.3 +j      3.6        8.2       0.8993
C_06          2         7.2 +j      3.5        8.1       0.8989
C_06          3         7.3 +j      3.5        8.1       0.9033
C_06          4        -0.0 +j     -0.0        0.0       0.5648
   TERMINAL TOTAL .    21.9 +j     10.6       24.3       0.9005
C_07          1        -7.3 +j     -3.6        8.1       0.8994
C_07          2        -7.2 +j     -3.5        8.0       0.8990
C_07          3        -7.3 +j     -3.5        8.1       0.9035
C_07          4         0.0 +j      0.0        0.0       0.5660
   TERMINAL TOTAL .   -21.8 +j    -10.5       24.2       0.9006

ELEMENT = "Line.LINE_07"
C_07          1         7.3 +j      3.6        8.1       0.8994
C_07          2         7.2 +j      3.5        8.0       0.8990
C_07          3         7.3 +j      3.5        8.1       0.9035
C_07          4        -0.0 +j     -0.0        0.0       0.5660
   TERMINAL TOTAL .    21.8 +j     10.5       24.2       0.9006
C_08          1        -7.3 +j     -3.5        8.1       0.8995
C_08          2        -7.2 +j     -3.5        8.0       0.8991
C_08          3        -7.3 +j     -3.4        8.0       0.9036
C_08          4         0.0 +j      0.0        0.0       0.5671
   TERMINAL TOTAL .   -21.8 +j    -10.5       24.1       0.9007

ELEMENT = "Line.LINE_08"
C_08          1         2.4 +j      1.2        2.7       0.8991
C_08          2         2.4 +j      1.2        2.7       0.8987
C_08          3         2.4 +j      1.1        2.7       0.9033
C_08          4        -0.0 +j     -0.0        0.0       0.5637
   TERMINAL TOTAL .     7.2 +j      3.5        8.0       0.9004
C_09          1        -2.4 +j     -1.2        2.7       0.8992
C_09          2        -2.4 +j     -1.2        2.7       0.8988
C_09          3        -2.4 +j     -1.1        2.7       0.9034
C_09          4         0.0 +j      0.0        0.0       0.5641
   TERMINAL TOTAL .    -7.2 +j     -3.5        8.0       0.9004

ELEMENT = "Line.LINE_09"
C_03          1        20.4 +j      9.7       22.6       0.9028
C_03          2        20.2 +j      9.6       22.4       0.9024
C_03          3        20.3 +j      9.5       22.4       0.9057
C_03          4        -0.0 +j     -0.0        0.0       0.5846
   TERMINAL TOTAL .    60.9 +j     28.9       67.4       0.9036
C_10          1       -20.0 +j     -9.6       22.2       0.9010
C_10          2       -19.8 +j     -9.5       21.9       0.9005
C_10          3       -19.9 +j     -9.4       22.0       0.9042
C_10          4         0.0 +j      0.0        0.0       0.6019
   TERMINAL TOTAL .   -59.6 +j    -28.6       66.1       0.9019

ELEMENT = "Line.LINE_10"
C_10          1        12.3 +j      5.9       13.7       0.9013
C_10          2        12.2 +j      5.9       13.5       0.9008
C_10          3        12.3 +j      5.8       13.6       0.9046
C_10          4        -0.0 +j     -0.0        0.0       0.6050
   TERMINAL TOTAL .    36.9 +j     17.6       40.8       0.9022
C_11          1       -12.2 +j     -5.9       13.5       0.9001
C_11          2       -12.0 +j     -5.8       13.4       0.8997
C_11          3       -12.1 +j     -5.8       13.4       0.9036
C_11          4         0.0 +j      0.0        0.0       0.6127
   TERMINAL TOTAL .   -36.4 +j    -17.5       40.4       0.9011

ELEMENT = "Line.LINE_11"
C_11          1         6.1 +j      2.9        6.8       0.9001
C_11          2         6.0 +j      2.9        6.7       0.8997
C_11          3         6.1 +j      2.9        6.7       0.9036
C_11          4        -0.0 +j     -0.0        0.0       0.6127
   TERMINAL TOTAL .    18.2 +j      8.7       20.2       0.9011
C_12          1        -6.0 +j     -2.9        6.7       0.8990
C_12          2        -6.0 +j     -2.9        6.6       0.8985
C_12          3        -6.0 +j     -2.9        6.7       0.9025
C_12          4         0.0 +j      0.0        0.0       0.6188
   TERMINAL TOTAL .   -18.0 +j     -8.7       20.0       0.9000

ELEMENT = "Line.LINE_12"
C_11          1         6.1 +j      2.9        6.8       0.9001
C_11          2         6.0 +j      2.9        6.7       0.8997
C_11          3         6.1 +j      2.9        6.7       0.9036
C_11          4        -0.0 +j     -0.0        0.0       0.6127
   TERMINAL TOTAL .    18.2 +j      8.7       20.2       0.9011
C_13          1        -6.0 +j     -2.9        6.7       0.8990
C_13          2        -6.0 +j     -2.9        6.6       0.8985
C_13          3        -6.0 +j     -2.9        6.7       0.9025
C_13          4         0.0 +j      0.0        0.0       0.6188
   TERMINAL TOTAL .   -18.0 +j     -8.7       20.0       0.9000

ELEMENT = "Line.LINE_13"
C_10          1         7.6 +j      3.7        8.5       0.9005
C_10          2         7.6 +j      3.7        8.4       0.9001
C_10          3         7.6 +j      3.6        8.4       0.9036
C_10          4        -0.0 +j     -0.0        0.0       0.5961
   TERMINAL TOTAL .    22.8 +j     10.9       25.3       0.9014
C_14          1        -7.5 +j     -3.7        8.4       0.8991
C_14          2        -7.5 +j     -3.6        8.3       0.8987
C_14          3        -7.5 +j     -3.6        8.3       0.9023
C_14          4         0.0 +j      0.0        0.0       0.6044
   TERMINAL TOTAL .   -22.5 +j    -10.9       25.0       0.9000

ELEMENT = "Line.LINE_14"
C_05          1        10.2 +j      4.9       11.4       0.9015
C_05          2        10.1 +j      4.9       11.2       0.9010
C_05          3        10.2 +j      4.8       11.3       0.9053
C_05          4        -0.0 +j     -0.0        0.0       0.5845
   TERMINAL TOTAL .    30.5 +j     14.6       33.8       0.9026
C_15          1       -10.1 +j     -4.9       11.2       0.9006
C_15          2       -10.0 +j     -4.8       11.1       0.9001
C_15          3       -10.1 +j     -4.8       11.2       0.9045
C_15          4         0.0 +j      0.0        0.0       0.5926
   TERMINAL TOTAL .   -30.2 +j    -14.5       33.5       0.9017

ELEMENT = "Line.LINE_15"
C_15          1         7.7 +j      3.7        8.6       0.9010
C_15          2         7.6 +j      3.7        8.4       0.9004
C_15          3         7.7 +j      3.6        8.5       0.9049
C_15          4        -0.0 +j     -0.0        0.0       0.5965
   TERMINAL TOTAL .    23.0 +j     11.0       25.5       0.9021
C_16          1        -7.6 +j     -3.7        8.5       0.9002
C_16          2        -7.5 +j     -3.7        8.4       0.8997
C_16          3        -7.6 +j     -3.6        8.4       0.9043
C_16          4         0.0 +j      0.0        0.0       0.6019
   TERMINAL TOTAL .   -22.8 +j    -10.9       25.3       0.9014

ELEMENT = "Line.LINE_16"
C_15          1         2.4 +j      1.2        2.7       0.8993
C_15          2         2.4 +j      1.2        2.7       0.8989
C_15          3         2.4 +j      1.1        2.7       0.9031
C_15          4        -0.0 +j     -0.0        0.0       0.5784
   TERMINAL TOTAL .     7.2 +j      3.5        8.0       0.9004
C_18          1        -2.4 +j     -1.2        2.7       0.8988
C_18          2        -2.4 +j     -1.2        2.7       0.8984
C_18          3        -2.4 +j     -1.1        2.7       0.9027
C_18          4         0.0 +j      0.0        0.0       0.5813
   TERMINAL TOTAL .    -7.2 +j     -3.5        8.0       0.9000

ELEMENT = "Line.LINE_17"
C_16          1         7.6 +j      3.7        8.5       0.9002
C_16          2         7.5 +j      3.7        8.4       0.8997
C_16          3         7.6 +j      3.6        8.4       0.9043
C_16          4        -0.0 +j     -0.0        0.0       0.6019
   TERMINAL TOTAL .    22.8 +j     10.9       25.3       0.9014
C_17          1        -7.5 +j     -3.7        8.4       0.8987
C_17          2        -7.4 +j     -3.6        8.3       0.8982
C_17          3        -7.5 +j     -3.6        8.3       0.9030
C_17          4         0.0 +j      0.0        0.0       0.6104
   TERMINAL TOTAL .   -22.5 +j    -10.9       25.0       0.9000

ELEMENT = "Line.LINE_18"
C_08          1         4.9 +j      2.4        5.4       0.8997
C_08          2         4.8 +j      2.3        5.3       0.8992
C_08          3         4.9 +j      2.3        5.4       0.9038
C_08          4        -0.0 +j     -0.0        0.0       0.5687
   TERMINAL TOTAL .    14.5 +j      7.0       16.1       0.9009
C_19          1        -4.8 +j     -2.4        5.4       0.8987
C_19          2        -4.8 +j     -2.3        5.3       0.8983
C_19          3        -4.8 +j     -2.3        5.3       0.9030
C_19          4         0.0 +j      0.0        0.0       0.5749
   TERMINAL TOTAL .   -14.4 +j     -7.0       16.0       0.9000

ELEMENT = "Line.LINE_19"
C_09          1         2.4 +j      1.2        2.7       0.8992
C_09          2         2.4 +j      1.2        2.7       0.8988
C_09          3         2.4 +j      1.1        2.7       0.9034
C_09          4        -0.0 +j     -0.0        0.0       0.5641
   TERMINAL TOTAL .     7.2 +j      3.5        8.0       0.9004
C_20          1        -2.4 +j     -1.2        2.7       0.8987
C_20          2        -2.4 +j     -1.2        2.7       0.8983
C_20          3        -2.4 +j     -1.1        2.7       0.9029
C_20          4         0.0 +j      0.0        0.0       0.5672
   TERMINAL TOTAL .    -7.2 +j     -3.5        8.0       0.9000

= = = = = = = = = = = = = = = = = = =  = = = = = = = = = = =  = =

Power Conversion Elements

  Bus     Phase     kW   +j  kvar         kVA         PF

ELEMENT = "Load.LOAD_C01"
C_01          1      36.0 +j   17.4       40.0       0.8999
C_01          2      36.0 +j   17.4       40.0       0.9000
C_01          3      36.0 +j   17.4       40.0       0.9001
C_01          4       0.0 +j   -0.0        0.0      -0.2142
  TERMINAL TOTAL  .   108.0 +j     52.3      120.0       0.9000

ELEMENT = "Load.LOAD_C12"
C_12          1       6.0 +j    2.9        6.7       0.8990
C_12          2       6.0 +j    2.9        6.6       0.8985
C_12          3       6.0 +j    2.9        6.7       0.9025
C_12          4      -0.0 +j   -0.0        0.0       0.6193
  TERMINAL TOTAL  .    18.0 +j      8.7       20.0       0.9000

ELEMENT = "Load.LOAD_C13"
C_13          1       6.0 +j    2.9        6.7       0.8990
C_13          2       6.0 +j    2.9        6.6       0.8985
C_13          3       6.0 +j    2.9        6.7       0.9025
C_13          4      -0.0 +j   -0.0        0.0       0.6193
  TERMINAL TOTAL  .    18.0 +j      8.7       20.0       0.9000

ELEMENT = "Load.LOAD_C14"
C_14          1       7.5 +j    3.7        8.4       0.8991
C_14          2       7.5 +j    3.6        8.3       0.8987
C_14          3       7.5 +j    3.6        8.3       0.9023
C_14          4      -0.0 +j   -0.0        0.0       0.6050
  TERMINAL TOTAL  .    22.5 +j     10.9       25.0       0.9000

ELEMENT = "Load.LOAD_C17"
C_17          1       7.5 +j    3.7        8.4       0.8987
C_17          2       7.4 +j    3.6        8.3       0.8982
C_17          3       7.5 +j    3.6        8.3       0.9030
C_17          4      -0.0 +j   -0.0        0.0       0.6111
  TERMINAL TOTAL  .    22.5 +j     10.9       25.0       0.9000

ELEMENT = "Load.LOAD_C18"
C_18          1       2.4 +j    1.2        2.7       0.8989
C_18          2       2.4 +j    1.2        2.7       0.8985
C_18          3       2.4 +j    1.1        2.7       0.9027
C_18          4      -0.0 +j   -0.0        0.0       0.5823
  TERMINAL TOTAL  .     7.2 +j      3.5        8.0       0.9000

ELEMENT = "Load.LOAD_C19"
C_19          1       4.8 +j    2.4        5.4       0.8987
C_19          2       4.8 +j    2.3        5.3       0.8983
C_19          3       4.8 +j    2.3        5.3       0.9030
C_19          4      -0.0 +j   -0.0        0.0       0.5760
  TERMINAL TOTAL  .    14.4 +j      7.0       16.0       0.9000

ELEMENT = "Load.LOAD_C20"
C_20          1       2.4 +j    1.2        2.7       0.8987
C_20          2       2.4 +j    1.2        2.7       0.8983
C_20          3       2.4 +j    1.1        2.7       0.9029
C_20          4      -0.0 +j   -0.0        0.0       0.5683
  TERMINAL TOTAL  .     7.2 +j      3.5        8.0       0.9000


Total Circuit Losses =   12.1 +j   12.1
